Version 4
SHEET 1 932 756
WIRE -656 -80 -688 -80
WIRE -576 -80 -656 -80
WIRE -544 -80 -576 -80
WIRE -384 -80 -432 -80
WIRE -320 -80 -384 -80
WIRE -256 -80 -320 -80
WIRE -112 -80 -256 -80
WIRE -16 -80 -112 -80
WIRE 48 -80 -16 -80
WIRE 112 -80 48 -80
WIRE 272 -80 112 -80
WIRE 480 -80 272 -80
WIRE 672 -80 480 -80
WIRE 672 -64 672 -80
WIRE -576 -16 -656 -16
WIRE -480 -16 -480 -48
WIRE -480 -16 -576 -16
WIRE -384 -16 -480 -16
WIRE -320 -16 -384 -16
WIRE -256 -16 -320 -16
WIRE -112 -16 -112 -80
WIRE -16 -16 -16 -80
WIRE 192 -16 112 -16
WIRE 272 -16 192 -16
WIRE 192 16 192 -16
WIRE 800 16 736 16
WIRE -480 32 -480 -16
WIRE 48 96 48 -80
WIRE 64 96 48 96
WIRE 304 96 288 96
WIRE -688 112 -688 -80
WIRE -688 112 -720 112
WIRE -544 112 -688 112
WIRE -368 112 -432 112
WIRE -272 112 -368 112
WIRE 304 112 304 96
WIRE 672 128 672 96
WIRE 800 128 800 96
WIRE 800 128 672 128
WIRE -208 160 -224 160
WIRE 64 160 -128 160
WIRE 512 160 288 160
WIRE -480 176 -480 144
WIRE -368 176 -480 176
WIRE -480 192 -480 176
WIRE -16 224 -16 64
WIRE 64 224 -16 224
WIRE 672 224 672 128
WIRE 672 224 288 224
WIRE -272 256 -272 112
WIRE -272 256 -432 256
WIRE -112 288 -112 64
WIRE 64 288 -112 288
WIRE 368 288 288 288
WIRE 512 288 512 160
WIRE -224 320 -224 160
WIRE -224 320 -432 320
WIRE 672 320 672 224
WIRE -352 384 -432 384
WIRE -112 384 -112 288
WIRE -48 384 -112 384
WIRE -16 384 -16 224
WIRE -352 448 -352 384
WIRE -352 448 -656 448
WIRE -16 448 -352 448
WIRE 192 448 -16 448
WIRE 368 448 368 432
WIRE 368 448 192 448
WIRE 512 448 512 432
WIRE 512 448 368 448
WIRE 672 448 672 400
WIRE 672 448 512 448
WIRE 192 464 192 448
FLAG 304 112 0
FLAG -432 320 Servo_Pulse
FLAG 192 464 0
FLAG -480 32 0
FLAG 480 -16 0
FLAG 192 16 0
FLAG -720 112 12V
FLAG -432 256 Servo_Pwr
FLAG -432 384 Servo_Gnd
FLAG -656 448 Ground
FLAG -480 192 0
SYMBOL Misc\\DIP8 176 192 R0
WINDOW 0 -55 -148 Center 0
WINDOW 3 1 41 Center 0
SYMATTR InstName U1
SYMATTR Value PIC12F675
SYMBOL res -112 144 R90
WINDOW 0 0 56 VBottom 0
WINDOW 3 32 56 VTop 0
SYMATTR InstName R1
SYMATTR Value 120
SYMBOL res 528 384 R180
WINDOW 0 36 76 Left 0
WINDOW 3 36 40 Left 0
SYMATTR InstName R3
SYMATTR Value 330
SYMBOL LED 496 368 R0
SYMATTR InstName D1
SYMATTR Value LED RED
SYMBOL Misc\\Switch -16 416 R270
SYMATTR InstName X2
SYMBOL res -32 -32 R0
SYMATTR InstName R4
SYMATTR Value 1200
SYMBOL res -128 -32 R0
SYMATTR InstName R5
SYMATTR Value 1200
SYMBOL res 656 304 R0
SYMATTR InstName R7
SYMATTR Value 5k
SYMBOL polcap -400 -80 R0
SYMATTR InstName C1
SYMATTR Value 10µf
SYMBOL polcap -592 -80 R0
SYMATTR InstName C2
SYMATTR Value 100n
SYMBOL polcap -336 -80 R0
SYMATTR InstName C3
SYMATTR Value 10µf
SYMBOL polcap -672 -80 R0
SYMATTR InstName C4
SYMATTR Value 220µf
SYMBOL mine\\vreg -480 -64 R0
SYMATTR InstName X1
SYMBOL cap -272 -80 R0
SYMATTR InstName C5
SYMATTR Value 100n
SYMBOL cap 96 -80 R0
SYMATTR InstName C6
SYMATTR Value 100n
SYMBOL cap 256 -80 R0
SYMATTR InstName C7
SYMATTR Value 100n
SYMBOL cap 464 -80 R0
SYMATTR InstName C8
SYMATTR Value 10µf
SYMBOL res 384 384 R180
WINDOW 0 36 76 Left 0
WINDOW 3 36 40 Left 0
SYMATTR InstName R2
SYMATTR Value 330
SYMBOL LED 352 368 R0
WINDOW 3 -25 111 Left 0
SYMATTR Value NSPW500BS
SYMATTR InstName D2
SYMBOL LM334 672 16 R0
SYMATTR InstName U2
SYMBOL mine\\vreg -480 128 R0
SYMATTR InstName X3
SYMBOL res 784 0 R0
SYMATTR InstName R6
SYMATTR Value 152 o
SYMBOL polcap -384 112 R0
SYMATTR InstName C10
SYMATTR Value 220µf
TEXT -104 480 Left 0 ;Auto, COLD, HOT
TEXT 288 152 Left 0 ;GP0
TEXT 288 208 Left 0 ;GP1
TEXT 288 272 Left 0 ;GP2
TEXT 24 272 Left 0 ;GP3
TEXT 24 208 Left 0 ;GP4
TEXT 24 144 Left 0 ;GP5
TEXT 688 408 Left 0 ;Potentiometer 5K / 25 Turns
